* CIRCUITO DE PRE-CARGA

* CIRCUITO

.subckt pre_carga pre bl blb vdd gnd fin=superior_fin

MP0 vdd pre bl vdd pmos_rvt nfin = fin
MP2 vdd pre blb vdd pmos_rvt nfin = fin
MP1 bl pre blb vdd pmos_rvt nfin = fin

.ends pre_carga
