* TOPOLOGIA 6T

.options post = 2

.include 32nm_HP.pm

.include Escrita.txt
.include Leitura.txt
.include PreCarga.txt

* PARAMETROS

* NODO
.param length = 32n

* TENSAO DO CIRCUITO
.param supply = 0.9

* DIMENSOES DA CELULA
.param width = '2*length'

* CIRCUITOS AUXILIARES
.param width_aux = 210n

* TEMPOS
.param clock = 1g
.param slope = 1p
.param period = 1/clock
.param step = period/7

.global supply gnd

* SUPPLY DO CIRCUITO
Vvdd vdd gnd DC supply

* SIMULACAO

Vwl wl gnd PWL(0ns 0)

* DECLARACAO DO CIRCUITO

*  CIRCUITOS AUXILIARES

* PRE-CARGA
Xprecarga pre bl blb vdd gnd pre_carga width=width_aux length=length

* LEITURA
Xleitura sae bl blb out outb vdd gnd leitura width=width_aux length=length

* ESCRITA
Xescrita  bit we bl blb vdd gnd escrita width=width_aux length=length

* 6T

* TRANSISTORES DE PASSAGEM
MN2 bl wl q gnd NMOS w = width l = length
MN3 blb wl qb gnd NMOS w = width l = length

* CELULA

* PRIMEIRO INVERSOR
MP0 vdd qb q vdd PMOS w = width l = length
MN0 q qb gnd gnd NMOS w = width l = length

* SEGUNDO INVERSOR
MP1 vdd q qb vdd PMOS w = width l = length
MN1 qb q gnd gnd NMOS w = width l = length

* INICIALIZANDO O VALOR DE Q E QB
.ic v(q) = 0
.ic v(qb) = supply


* TESTE DE ROBUSTEZ
* 010 : gnd nodo
* 101 : nodo gnd
Iexp qb gnd exp(0 38u 0.5ns 10p 0.5001ns 320p)

.tran 0.01ns '4*period'

.end
