* CIRCUITO 6T
.TITLE '6T FINFET'

.include 7nm_TT.pm

.include Escrita.txt
.include Leitura.txt
.include PreCarga.txt

* PARAMETROS
.param fin_auxiliares = 1
.param fin = 1

* TENSAO DO CIRCUITO
.param supply = 0.7

* TEMPO
.param clock = 1g
.param slope = '0.01*period'
.param period = '1/clock'
.param step = 'period/7'

 .global supply gnd

* FONTE DO CIRCUITO
Vvdd vdd gnd DC supply

* SIMULACAO

Vbit bit gnd PWL(0ns 0 '2*period' 0 '2*period + slope' supply)

Vwe we gnd PWL(0ns supply 'period' supply 'period + slope' 0
+ '2*period' 0 '2*period + slope' supply
+ '3*period' supply '3*period + slope' 0)

Vwl wl gnd PWL(0ns 0 '3*step' 0 '3*step + slope' supply '4*step' supply '4*step + slope' 0
+ 'period + 3*step' 0 'period + 3*step + slope' supply 'period + 4*step' supply 'period + 4*step + slope' 0
+ '2*period + 3*step' 0 '2*period + 3*step + slope' supply '2*period + 4*step' supply '2*period + 4*step + slope' 0
+ '3*period + 3*step' 0 '3*period + 3*step + slope' supply '3*period + 4*step' supply '3*period + 4*step + slope' 0)

Vpre pre gnd PWL(0ns 0 'step' 0 'step + slope' supply '6*step' supply '6*step + slope' 0
+ 'period + step' 0 'period + step + slope' supply 'period + 6*step' supply 'period + 6*step + slope' 0
+ '2*period + step' 0 '2*period + step + slope' supply '2*period + 6*step' supply '2*period + 6*step + slope' 0
+ '3*period + step' 0 '3*period + step + slope' supply '3*period + 6*step' supply '3*period + 6*step + slope' 0)

Vsae sae gnd PWL(0ns 0 'period + 3*step' 0 'period + 3*step + slope' supply 'period + 4*step' supply 'period + 4*step + slope' 0
+ '3*period + 3*step' 0 '3*period + 3*step + slope' supply '3*period + 4*step' supply '3*period + 4*step + slope' 0)

* DECLARACAO DO CIRCUITO

* CIRCUITOS AUXILIARES

* PRE-CARGA
Xprecarga pre bl blb vdd gnd pre_carga fin=fin_auxiliares

* LEITURA
Xleitura  sae bl blb out outb vdd gnd leitura fin=fin_auxiliares

* ESCRITA
Xescrita  bit we bl blb vdd gnd escrita fin=fin_auxiliares

* 6T

* PRIMEIRO INVERSOR
MP0 vdd qb q vdd pmos_rvt nfin = fin
MN0 q qb gnd gnd nmos_rvt nfin = fin

* SEGUNDO INVERSOR
MP1 vdd q qb vdd pmos_rvt nfin = fin
MN1 qb q gnd gnd nmos_rvt nfin = fin

* TRANSISTORES DE PASSAGEM
MN2 bl wl q gnd nmos_rvt nfin = fin
MN3 blb wl qb gnd nmos_rvt nfin = fin

* INICIALIZANDO O VALOR DE Q
.ic v(q) = supply
.ic v(qb) = 0

* RESULTADOS
.tran 0.01ns '4*period'

.measure tran Escrita_0 trig v(wl) val='supply/2' rise=1 targ v(q) val='supply/2' fall=1

.measure tran Leitura_0 trig v(wl) val='supply/2' rise=2 targ v(bl) val='supply*0.9' fall=1

.measure tran Escrita_1 trig v(wl) val='supply/2'  rise=3 targ v(q) val='supply/2' rise=1

.measure tran Leitura_1 trig v(wl) val='supply/2'  rise=4 targ v(blb) val='supply*0.9' fall=4

.measure tran Energia_vdd INTEG i(Vvdd) from=0 to='4*period'

.end
