* CIRCUITO 6T

.OPTION POST = 2
.PRINT DC v(q) v(qb)

.include 32nm_HP.pm

* PARAMETROS
* NODO
.param length = 32n
* DIMENSOES DA CELULA
.param width = '2*length'

* TENSAO DO CIRCUITO
.param supply = 0.9

* FONTE DO CIRCUITO
Vvdd vdd gnd DC supply

* ==================== SNM
Vvn vn gnd DC 0

* Vq q vn DC 0
Vqb qb vn DC 0

* ==== HOLD
* WL = 0
* Vwl wl gnd DC 0
* Vbl bl gnd DC supply
* Vblb blb gnd DC supply

* ==== READ 0
* WL = 1 BL e BL = 1
* Vwl wl gnd DC supply
* Vbl bl gnd DC supply
* Vblb blb gnd DC supply

* ==== WRITE 1
* WL = 1
Vwl wl gnd DC supply
Vbl bl gnd DC 0
Vblb blb gnd DC supply

* DECLARACAO DO CIRCUITO

* 6T

* TRANSISTORES DE PASSAGEM
MN2 bl wl q gnd NMOS w = width l = length
MN3 blb wl qb gnd NMOS w = width l = length

* CELULA

* PRIMEIRO INVERSOR
MP0 vdd qb q vdd PMOS w = width l = length
MN0 q qb gnd gnd NMOS w = width l = length

* SEGUNDO INVERSOR
MP1 vdd q qb vdd PMOS w = width l = length
MN1 qb q gnd gnd NMOS w = width l = length

.DC Vvn 0 'supply' 'supply*0.001'

.end
